Version 4
SHEET 1 2212 920
WIRE 1504 208 1024 208
WIRE 1632 208 1568 208
WIRE 1808 208 1712 208
WIRE 1968 208 1808 208
WIRE 2096 208 1968 208
WIRE 1808 240 1808 208
WIRE 528 256 432 256
WIRE 720 256 592 256
WIRE 1216 304 1184 304
WIRE 1328 304 1280 304
WIRE 1968 320 1968 208
WIRE 432 336 432 256
WIRE 448 336 432 336
WIRE 528 336 448 336
WIRE 720 336 720 256
WIRE 720 336 608 336
WIRE 1808 336 1808 304
WIRE 1808 336 1744 336
WIRE 1744 368 1744 336
WIRE 1184 384 1184 304
WIRE 1216 384 1184 384
WIRE 1328 384 1328 304
WIRE 1328 384 1296 384
WIRE 1808 384 1808 336
WIRE 32 480 16 480
WIRE 176 480 32 480
WIRE 272 480 272 416
WIRE 272 480 240 480
WIRE 400 480 272 480
WIRE 448 480 448 336
WIRE 528 480 448 480
WIRE 1184 480 1184 384
WIRE 1184 480 1168 480
WIRE 1232 480 1184 480
WIRE -192 496 -416 496
WIRE -64 496 -112 496
WIRE 32 496 32 480
WIRE 32 496 -64 496
WIRE 720 496 720 336
WIRE 720 496 592 496
WIRE 1024 496 1024 208
WIRE 1024 496 720 496
WIRE 1088 496 1088 480
WIRE 1088 496 1024 496
WIRE 1328 496 1328 384
WIRE 1328 496 1296 496
WIRE 1424 496 1328 496
WIRE 1504 496 1424 496
WIRE 1632 496 1568 496
WIRE 1808 496 1808 448
WIRE 1808 496 1712 496
WIRE 1968 496 1968 384
WIRE 1968 496 1808 496
WIRE 2096 496 1968 496
WIRE -416 512 -416 496
WIRE 400 512 400 480
WIRE 528 512 400 512
WIRE 1232 512 1200 512
WIRE -64 528 -64 496
WIRE 272 528 272 480
WIRE 1200 560 1200 512
WIRE 1200 560 1088 560
WIRE 1424 560 1424 496
WIRE 1088 576 1088 560
WIRE 1200 576 1200 560
WIRE -64 608 -64 592
WIRE -416 624 -416 592
WIRE 1088 688 1088 656
FLAG 512 880 0
FLAG 624 880 0
FLAG -416 624 0
FLAG 512 800 -V
FLAG 624 800 +V
FLAG 560 528 -V
FLAG 560 464 +V
FLAG 1264 464 +V
FLAG 1264 528 -V
FLAG 1744 368 0
FLAG 1968 208 VIN+
FLAG 1968 496 VIN-
FLAG 2096 288 0
FLAG 2096 576 0
FLAG -64 608 0
FLAG 288 880 0
FLAG 288 800 Vbias
FLAG 272 336 Vbias
FLAG 272 608 0
FLAG 1200 656 0
FLAG 1088 688 Vbias
SYMBOL voltage 512 784 R0
WINDOW 123 0 0 Left 0
WINDOW 39 0 0 Left 0
SYMATTR InstName V1
SYMATTR Value 0
SYMBOL voltage 624 784 R0
WINDOW 123 0 0 Left 0
WINDOW 39 0 0 Left 0
SYMATTR InstName V2
SYMATTR Value 9
SYMBOL res 624 320 R90
WINDOW 0 0 56 VBottom 2
WINDOW 3 32 56 VTop 2
SYMATTR InstName R2
SYMATTR Value 5.7k
SYMBOL cap 592 240 R90
WINDOW 0 0 32 VBottom 2
WINDOW 3 32 32 VTop 2
SYMATTR InstName C1
SYMATTR Value 120p
SYMBOL voltage -416 496 R0
WINDOW 123 24 124 Left 2
WINDOW 39 24 152 Left 2
WINDOW 3 24 44 Left 2
SYMATTR Value2 AC 1
SYMATTR SpiceLine Rser=10k
SYMATTR InstName V3
SYMATTR Value SINE(0 0.25 440)
SYMBOL res 1184 464 R90
WINDOW 0 0 56 VBottom 2
WINDOW 3 32 56 VTop 2
SYMATTR InstName R3
SYMATTR Value 5.7k
SYMBOL res 1312 368 R90
WINDOW 0 0 56 VBottom 2
WINDOW 3 32 56 VTop 2
SYMATTR InstName R4
SYMATTR Value 5.7k
SYMBOL cap 1280 288 R90
WINDOW 0 0 32 VBottom 2
WINDOW 3 32 32 VTop 2
SYMATTR InstName C2
SYMATTR Value 120p
SYMBOL cap 1568 192 R90
WINDOW 0 0 32 VBottom 2
WINDOW 3 32 32 VTop 2
SYMATTR InstName C3
SYMATTR Value 4.7µ
SYMBOL res 1728 192 R90
WINDOW 0 0 56 VBottom 2
WINDOW 3 32 56 VTop 2
SYMATTR InstName R5
SYMATTR Value 220
SYMBOL cap 1568 480 R90
WINDOW 0 0 32 VBottom 2
WINDOW 3 32 32 VTop 2
SYMATTR InstName C4
SYMATTR Value 4.7µ
SYMBOL res 1728 480 R90
WINDOW 0 0 56 VBottom 2
WINDOW 3 32 56 VTop 2
SYMATTR InstName R6
SYMATTR Value 220
SYMBOL cap 1952 320 R0
SYMATTR InstName C5
SYMATTR Value 100p
SYMBOL OpAmps\\OP27 560 432 R0
SYMATTR InstName U1
SYMBOL OpAmps\\OP27 1264 432 R0
SYMATTR InstName U2
SYMBOL res 2080 480 R0
SYMATTR InstName R7
SYMATTR Value 100Meg
SYMBOL res 2080 192 R0
SYMATTR InstName R8
SYMATTR Value 100Meg
SYMBOL cap 1792 384 R0
SYMATTR InstName C7
SYMATTR Value 1n
SYMBOL cap 1792 240 R0
SYMATTR InstName C8
SYMATTR Value 1n
SYMBOL cap 176 496 R270
WINDOW 0 32 32 VTop 2
WINDOW 3 0 32 VBottom 2
SYMATTR InstName C9
SYMATTR Value 68n
SYMBOL cap -80 528 R0
SYMATTR InstName C6
SYMATTR Value 220p
SYMBOL res -96 480 R90
WINDOW 0 0 56 VBottom 2
WINDOW 3 32 56 VTop 2
SYMATTR InstName R10
SYMATTR Value 100
SYMBOL voltage 288 784 R0
WINDOW 123 0 0 Left 0
WINDOW 39 0 0 Left 0
SYMATTR InstName V4
SYMATTR Value 9
SYMBOL res 256 320 R0
SYMATTR InstName R11
SYMATTR Value 1Meg
SYMBOL res 256 512 R0
SYMATTR InstName R12
SYMATTR Value 1Meg
SYMBOL res 1184 560 R0
SYMATTR InstName R9
SYMATTR Value 1Meg
SYMBOL res 1072 560 R0
SYMATTR InstName R13
SYMATTR Value 1Meg
SYMBOL res 400 208 R90
WINDOW 0 0 56 VBottom 2
WINDOW 3 32 56 VTop 2
SYMATTR InstName R14
SYMATTR Value 5.7k
TEXT 0 904 Left 2 !.tran 1
